omf/scratch/voltdumpDebug/main.2015-01-08-09-23-27.glm
clock {
	timezone PST+8PDT;
	starttime '2011-01-01 00:00:00';
	stoptime '2011-01-05 04:00:00';
};

#set minimum_timestep=3600;
#set profiler=1;
#set relax_naming_rules=1;
module generators;
module tape;
module residential {
	implicit_enduses NONE;
};

module powerflow {
	solver_method FBS;
};

object node {
	phases ABCN;
	nominal_voltage 7200.0;
	name FRIENDSHIP;
	bustype SWING;
};

object regulator {
	phases ACB;
	from FRIENDSHIP;
	name REG27;
	to node958175REG27;
	configuration REG27regulator_configuration101;
};

object regulator_configuration {
	Control MANUAL;
	Type A;
	raise_taps 16;
	name REG27regulator_configuration101;
	band_center 2401;
	tap_pos_A 1;
	tap_pos_B 1;
	time_delay 30.0;
	connect_type 1;
	regulation 0.10;
	CT_phase ABC;
	lower_taps 16;
	tap_pos_C 1;
	PT_phase ABC;
	band_width 50;
};

object underground_line {
	phases ACB;
	from node958175REG27;
	name 958175;
	to nodeRFRN1-R0001x1958175;
	length 24;
	configuration 841826line_configuration393201;
};

object fuse {
	phases ACB;
	from nodeRFRN1-R0001x1958175;
	name RFRN1-R0001x1;
	current_limit 9999.0 A;
	to node958178RFRN1-R0001x1;
};

object underground_line {
	phases ACB;
	from node958178RFRN1-R0001x1;
	name 958178;
	to node958179958178;
	length 780;
	configuration 841826line_configuration393201;
};

object underground_line {
	phases ACB;
	from node958179958178;
	name 958179;
	to node978195958179;
	length 860;
	configuration 841826line_configuration393201;
};

object underground_line {
	phases ACB;
	from node978195958179;
	name 978195;
	to node978172978195;
	length 1970;
	configuration 841826line_configuration393201;
};

object underground_line {
	phases ACB;
	from node978172978195;
	name 978172;
	to node978174978172;
	length 780;
	configuration 841826line_configuration393201;
};

object underground_line {
	phases B;
	from node978174978172;
	name 978174;
	to nodeF28653x1978174;
	length 30;
	configuration 841826line_configuration393201;
};

object fuse {
	phases B;
	from nodeF28653x1978174;
	name F28653x1;
	current_limit 9999.0 A;
	to node978192F28653x1;
};

object underground_line {
	phases B;
	from node978192F28653x1;
	name 978192;
	to node949317978192;
	length 40;
	configuration 841826line_configuration393201;
};

object underground_line {
	phases B;
	from node949317978192;
	name 949317;
	to node949318949317;
	length 469;
	configuration 841826line_configuration393201;
};

object underground_line {
	phases B;
	from node949318949317;
	name 949318;
	to nodeT14104949318;
	length 519;
	configuration 841826line_configuration393201;
};

object underground_line {
	phases B;
	from node949318949317;
	name 949319;
	to nodeT14100949319;
	length 40;
	configuration 841826line_configuration393201;
};

object transformer {
	phases BS;
	from nodeT14100949319;
	name T14100;
	to nodeS1806-33-073T14100;
	configuration 1806-0052transformer_configuration32701;
};

object triplex_load {
	impedance_pf_12 0.98;
	name S1806-33-073;
	parent nodeS1806-33-073T14100;
	phases BS;
	power_pf_12 0.90;
	power_fraction_12 0.3;
	impedance_fraction_12 0.7;
	nominal_voltage 120;
	base_power_12 scadaLoads.value*100.0;
};

object transformer {
	phases BS;
	from node949317978192;
	name T14102;
	to nodeS1806-32-065T14102;
	configuration 1806-0052transformer_configuration32701;
};

object triplex_load {
	impedance_pf_12 0.98;
	name S1806-32-065;
	parent nodeS1806-32-065T14102;
	phases BS;
	power_pf_12 0.90;
	power_fraction_12 0.3;
	impedance_fraction_12 0.7;
	nominal_voltage 120;
	base_power_12 scadaLoads.value*100.0;
};

object triplex_load {
	impedance_pf_12 0.98;
	name S1806-33-042;
	parent nodeS1806-32-065T14102;
	phases BS;
	power_pf_12 0.90;
	power_fraction_12 0.3;
	impedance_fraction_12 0.7;
	nominal_voltage 120;
	base_power_12 scadaLoads.value*100.0;
};

object underground_line {
	phases C;
	from node978174978172;
	name 978200;
	to nodeR2911x1978200;
	length 314;
	configuration 841826line_configuration393201;
};

object fuse {
	phases CN;
	from nodeR2911x1978200;
	name R2911x1;
	current_limit 9999.0 A;
	to node839461R2911x1;
};

object overhead_line {
	phases CN;
	from node839461R2911x1;
	name 839461;
	to node839464839461;
	length 60;
	configuration 840429line_configuration360401;
};

object overhead_line {
	phases CN;
	from node839464839461;
	name 839464;
	to node839466839464;
	length 111;
	configuration 840429line_configuration360401;
};

object overhead_line {
	phases CN;
	from node839466839464;
	name 839466;
	to node839469839466;
	length 207;
	configuration 840429line_configuration360401;
};

object overhead_line {
	phases CN;
	from node839469839466;
	name 839469;
	to node839471839469;
	length 226;
	configuration 840429line_configuration360401;
};

object overhead_line {
	phases CN;
	from node839471839469;
	name 839471;
	to node956777839471;
	length 120;
	configuration 840429line_configuration360401;
};

object overhead_line {
	phases CN;
	from node956777839471;
	name 956777;
	to node839473956777;
	length 130;
	configuration 840429line_configuration360401;
};

object overhead_line {
	phases CN;
	from node839473956777;
	name 839473;
	to node839475839473;
	length 226;
	configuration 840429line_configuration360401;
};

object overhead_line {
	phases CN;
	from node839475839473;
	name 839475;
	to node839477839475;
	length 262;
	configuration 840429line_configuration360401;
};

object overhead_line {
	phases CN;
	from node839477839475;
	name 839477;
	to node839479839477;
	length 81;
	configuration 840429line_configuration360401;
};

object overhead_line {
	phases CN;
	from node839479839477;
	name 839479;
	to node839481839479;
	length 243;
	configuration 840429line_configuration360401;
};

object overhead_line {
	phases CN;
	from node839481839479;
	name 839481;
	to node839483839481;
	length 183;
	configuration 840429line_configuration360401;
};

object overhead_line {
	phases CN;
	from node839483839481;
	name 839483;
	to node839484839483;
	length 98;
	configuration 840429line_configuration360401;
};

object overhead_line {
	phases CN;
	from node839484839483;
	name 839484;
	to node839486839484;
	length 10;
	configuration 840429line_configuration360401;
};

object overhead_line {
	phases CN;
	from node839486839484;
	name 839486;
	to node839488839486;
	length 223;
	configuration 840429line_configuration360401;
};

object overhead_line {
	phases CN;
	from node839488839486;
	name 839488;
	to node839490839488;
	length 219;
	configuration 840429line_configuration360401;
};

object overhead_line {
	phases CN;
	from node839490839488;
	name 839490;
	to node839491839490;
	length 178;
	configuration 840429line_configuration360401;
};

object overhead_line {
	phases CN;
	from node839491839490;
	name 839491;
	to node974130839491;
	length 135;
	configuration 840429line_configuration360401;
};

object overhead_line {
	phases CN;
	from node974130839491;
	name 974130;
	to node839493974130;
	length 120;
	configuration 840429line_configuration360401;
};

object overhead_line {
	phases CN;
	from node839493974130;
	name 839493;
	to node839496839493;
	length 261;
	configuration 840429line_configuration360401;
};

object overhead_line {
	phases CN;
	from node839496839493;
	name 839496;
	to node839497839496;
	length 56;
	configuration 840429line_configuration360401;
};

object overhead_line {
	phases CN;
	from node839497839496;
	name 839497;
	to node839499839497;
	length 191;
	configuration 840429line_configuration360401;
};

object overhead_line {
	phases CN;
	from node839499839497;
	name 839499;
	to node839502839499;
	length 223;
	configuration 840429line_configuration360401;
};

object overhead_line {
	phases CN;
	from node839502839499;
	name 839502;
	to node839503839502;
	length 91;
	configuration 840429line_configuration360401;
};

object overhead_line {
	phases CN;
	from node839503839502;
	name 839503;
	to node839505839503;
	length 134;
	configuration 840429line_configuration360401;
};

object underground_line {
	phases CN;
	from node839505839503;
	name 839505;
	to nodeFFRN1-F008x1839505;
	length 18;
	configuration 841826line_configuration393201;
};

object fuse {
	phases C;
	from nodeFFRN1-F008x1839505;
	name FFRN1-F008x1;
	current_limit 9999.0 A;
	to node839506FFRN1-F008x1;
};

object underground_line {
	phases C;
	from node839506FFRN1-F008x1;
	name 839506;
	to node839509839506;
	length 65;
	configuration 841826line_configuration393201;
};

object underground_line {
	phases C;
	from node839509839506;
	name 839509;
	to node839511839509;
	length 136;
	configuration 841826line_configuration393201;
};

object underground_line {
	phases C;
	from node839511839509;
	name 839511;
	to node839512839511;
	length 53;
	configuration 841826line_configuration393201;
};

object underground_line {
	phases C;
	from node839512839511;
	name 839512;
	to node839514839512;
	length 206;
	configuration 841826line_configuration393201;
};

object underground_line {
	phases C;
	from node839514839512;
	name 839514;
	to node910237839514;
	length 184;
	configuration 841826line_configuration393201;
};

object underground_line {
	phases C;
	from node910237839514;
	name 910237;
	to node906381910237;
	length 129;
	configuration 841826line_configuration393201;
};

object underground_line {
	phases C;
	from node906381910237;
	name 906381;
	to node839516906381;
	length 134;
	configuration 841826line_configuration393201;
};

object underground_line {
	phases C;
	from node839516906381;
	name 839516;
	to node839517839516;
	length 40;
	configuration 841826line_configuration393201;
};

object underground_line {
	phases C;
	from node839517839516;
	name 839517;
	to node839519839517;
	length 165;
	configuration 841826line_configuration393201;
};

object underground_line {
	phases CN;
	from node839519839517;
	name 839519;
	to node839521839519;
	length 174;
	configuration 841826line_configuration393201;
};

object underground_line {
	phases CN;
	from node839521839519;
	name 839521;
	to node1806-0087839521;
	length 331;
	configuration 841826line_configuration393201;
};

object transformer {
	phases CS;
	from node1806-0087839521;
	name 1806-0087;
	to nodeS1806-33-0471806-0087;
	configuration 1806-0052transformer_configuration32701;
};

object triplex_load {
	impedance_pf_12 0.98;
	name S1806-33-047;
	parent nodeS1806-33-0471806-0087;
	phases CS;
	power_pf_12 0.90;
	power_fraction_12 0.3;
	impedance_fraction_12 0.7;
	nominal_voltage 120;
	base_power_12 scadaLoads.value*4654.14;
};

object triplex_load {
	impedance_pf_12 0.98;
	name S1806-33-059;
	parent nodeS1806-33-0471806-0087;
	phases CS;
	power_pf_12 0.90;
	power_fraction_12 0.3;
	impedance_fraction_12 0.7;
	nominal_voltage 120;
	base_power_12 scadaLoads.value*3442.47;
};

object transformer {
	phases CS;
	from node839521839519;
	name 1806-0085;
	to nodeS1806-33-0501806-0085;
	configuration 1806-0052transformer_configuration32701;
};

object triplex_load {
	impedance_pf_12 0.98;
	name S1806-33-050;
	parent nodeS1806-33-0501806-0085;
	phases CS;
	power_pf_12 0.90;
	power_fraction_12 0.3;
	impedance_fraction_12 0.7;
	nominal_voltage 120;
	base_power_12 scadaLoads.value*2822.05;
};

object transformer {
	phases CS;
	from node839519839517;
	name 1806-33-031;
	to nodeS1806-33-0321806-33-031;
	configuration 1806-0052transformer_configuration32701;
};

object triplex_load {
	impedance_pf_12 0.98;
	name S1806-33-032;
	parent nodeS1806-33-0321806-33-031;
	phases CS;
	power_pf_12 0.90;
	power_fraction_12 0.3;
	impedance_fraction_12 0.7;
	nominal_voltage 120;
	base_power_12 scadaLoads.value*2907.62;
};

object transformer {
	phases CS;
	from node839516906381;
	name 1806-33-030;
	to nodeS1806-33-0441806-33-030;
	configuration 1806-0052transformer_configuration32701;
};

object triplex_load {
	impedance_pf_12 0.98;
	name S1806-33-044;
	parent nodeS1806-33-0441806-33-030;
	phases CS;
	power_pf_12 0.90;
	power_fraction_12 0.3;
	impedance_fraction_12 0.7;
	nominal_voltage 120;
	base_power_12 scadaLoads.value*702.108;
};

object underground_line {
	phases C;
	from node906381910237;
	name 906382;
	to nodeT4303906382;
	length 194;
	configuration 841826line_configuration393201;
};

object transformer {
	phases CS;
	from nodeT4303906382;
	name T4303;
	to nodeS1806-33-069T4303;
	configuration 1806-0052transformer_configuration32701;
};

object triplex_load {
	impedance_pf_12 0.98;
	name S1806-33-069;
	parent nodeS1806-33-069T4303;
	phases CS;
	power_pf_12 0.90;
	power_fraction_12 0.3;
	impedance_fraction_12 0.7;
	nominal_voltage 120;
	base_power_12 scadaLoads.value*5192.87;
};

object underground_line {
	phases C;
	from node910237839514;
	name 910238;
	to nodeT4006910238;
	length 204;
	configuration 841826line_configuration393201;
};

object transformer {
	phases CS;
	from nodeT4006910238;
	name T4006;
	to nodeS1806-33-068T4006;
	configuration 1806-0052transformer_configuration32701;
};

object triplex_load {
	impedance_pf_12 0.98;
	name S1806-33-068;
	parent nodeS1806-33-068T4006;
	phases CS;
	power_pf_12 0.90;
	power_fraction_12 0.3;
	impedance_fraction_12 0.7;
	nominal_voltage 120;
	base_power_12 scadaLoads.value*705.998;
};

object underground_line {
	phases C;
	from node839512839511;
	name 970774;
	to nodeT28678970774;
	length 80;
	configuration 841826line_configuration393201;
};

object transformer {
	phases CS;
	from nodeT28678970774;
	name T28678;
	to nodeS1806-33-077T28678;
	configuration 1806-0052transformer_configuration32701;
};

object triplex_load {
	impedance_pf_12 0.98;
	name S1806-33-077;
	parent nodeS1806-33-077T28678;
	phases CS;
	power_pf_12 0.90;
	power_fraction_12 0.3;
	impedance_fraction_12 0.7;
	nominal_voltage 120;
	base_power_12 scadaLoads.value*2040.2;
};

object transformer {
	phases CS;
	from node839505839503;
	name 1806-33-025;
	to nodeS1806-33-0161806-33-025;
	configuration 1806-0052transformer_configuration32701;
};

object triplex_load {
	impedance_pf_12 0.98;
	name S1806-33-016;
	parent nodeS1806-33-0161806-33-025;
	phases CS;
	power_pf_12 0.90;
	power_fraction_12 0.3;
	impedance_fraction_12 0.7;
	nominal_voltage 120;
	base_power_12 scadaLoads.value*525.122;
};

object triplex_load {
	impedance_pf_12 0.98;
	name S1806-33-023;
	parent nodeS1806-33-0161806-33-025;
	phases CS;
	power_pf_12 0.90;
	power_fraction_12 0.3;
	impedance_fraction_12 0.7;
	nominal_voltage 120;
	base_power_12 scadaLoads.value*1019.13;
};

object triplex_load {
	impedance_pf_12 0.98;
	name S1806-33-026;
	parent nodeS1806-33-0161806-33-025;
	phases CS;
	power_pf_12 0.90;
	power_fraction_12 0.3;
	impedance_fraction_12 0.7;
	nominal_voltage 120;
	base_power_12 scadaLoads.value*100.0;
};

object transformer {
	phases CS;
	from node839502839499;
	name 1806-33-024;
	to nodeS1806-33-0131806-33-024;
	configuration 1806-0052transformer_configuration32701;
};

object triplex_load {
	impedance_pf_12 0.98;
	name S1806-33-013;
	parent nodeS1806-33-0131806-33-024;
	phases CS;
	power_pf_12 0.90;
	power_fraction_12 0.3;
	impedance_fraction_12 0.7;
	nominal_voltage 120;
	base_power_12 scadaLoads.value*108.914;
};

object triplex_load {
	impedance_pf_12 0.98;
	name S1806-33-031;
	parent nodeS1806-33-0131806-33-024;
	phases CS;
	power_pf_12 0.90;
	power_fraction_12 0.3;
	impedance_fraction_12 0.7;
	nominal_voltage 120;
	base_power_12 scadaLoads.value*529.012;
};

object triplex_load {
	impedance_pf_12 0.98;
	name S1806-33-037;
	parent nodeS1806-33-0131806-33-024;
	phases CS;
	power_pf_12 0.90;
	power_fraction_12 0.3;
	impedance_fraction_12 0.7;
	nominal_voltage 120;
	base_power_12 scadaLoads.value*490.114;
};

object triplex_load {
	impedance_pf_12 0.98;
	name S1806-33-038;
	parent nodeS1806-33-0131806-33-024;
	phases CS;
	power_pf_12 0.90;
	power_fraction_12 0.3;
	impedance_fraction_12 0.7;
	nominal_voltage 120;
	base_power_12 scadaLoads.value*100.0;
};

object transformer {
	phases CS;
	from node839499839497;
	name 1806-33-022;
	to nodeS1806-33-0411806-33-022;
	configuration 1806-0052transformer_configuration32701;
};

object triplex_load {
	impedance_pf_12 0.98;
	name S1806-33-041;
	parent nodeS1806-33-0411806-33-022;
	phases CS;
	power_pf_12 0.90;
	power_fraction_12 0.3;
	impedance_fraction_12 0.7;
	nominal_voltage 120;
	base_power_12 scadaLoads.value*532.902;
};

object transformer {
	phases CS;
	from node839496839493;
	name 1806-33-021;
	to nodeS1806-33-0291806-33-021;
	configuration 1806-0052transformer_configuration32701;
};

object triplex_load {
	impedance_pf_12 0.98;
	name S1806-33-029;
	parent nodeS1806-33-0291806-33-021;
	phases CS;
	power_pf_12 0.90;
	power_fraction_12 0.3;
	impedance_fraction_12 0.7;
	nominal_voltage 120;
	base_power_12 scadaLoads.value*3016.53;
};

object triplex_load {
	impedance_pf_12 0.98;
	name S1806-33-046;
	parent nodeS1806-33-0291806-33-021;
	phases CS;
	power_pf_12 0.90;
	power_fraction_12 0.3;
	impedance_fraction_12 0.7;
	nominal_voltage 120;
	base_power_12 scadaLoads.value*100.0;
};

object transformer {
	phases CS;
	from node839493974130;
	name 1806-33-089;
	to nodeS1806-33-0561806-33-089;
	configuration 1806-0052transformer_configuration32701;
};

object triplex_load {
	impedance_pf_12 0.98;
	name S1806-33-056;
	parent nodeS1806-33-0561806-33-089;
	phases CS;
	power_pf_12 0.90;
	power_fraction_12 0.3;
	impedance_fraction_12 0.7;
	nominal_voltage 120;
	base_power_12 scadaLoads.value*1291.41;
};

object transformer {
	phases CS;
	from node839491839490;
	name 1806-33-020;
	to nodeS1806-33-0221806-33-020;
	configuration 1806-0052transformer_configuration32701;
};

object triplex_load {
	impedance_pf_12 0.98;
	name S1806-33-022;
	parent nodeS1806-33-0221806-33-020;
	phases CS;
	power_pf_12 0.90;
	power_fraction_12 0.3;
	impedance_fraction_12 0.7;
	nominal_voltage 120;
	base_power_12 scadaLoads.value*423.987;
};

object triplex_load {
	impedance_pf_12 0.98;
	name S1806-33-045;
	parent nodeS1806-33-0221806-33-020;
	phases CS;
	power_pf_12 0.90;
	power_fraction_12 0.3;
	impedance_fraction_12 0.7;
	nominal_voltage 120;
	base_power_12 scadaLoads.value*285.9;
};

object triplex_load {
	impedance_pf_12 0.98;
	name S1806-33-067;
	parent nodeS1806-33-0221806-33-020;
	phases CS;
	power_pf_12 0.90;
	power_fraction_12 0.3;
	impedance_fraction_12 0.7;
	nominal_voltage 120;
	base_power_12 scadaLoads.value*291.734;
};

object transformer {
	phases CS;
	from node839488839486;
	name 1806-33-017;
	to nodeS1806-33-0151806-33-017;
	configuration 1806-0052transformer_configuration32701;
};

object triplex_load {
	impedance_pf_12 0.98;
	name S1806-33-015;
	parent nodeS1806-33-0151806-33-017;
	phases CS;
	power_pf_12 0.90;
	power_fraction_12 0.3;
	impedance_fraction_12 0.7;
	nominal_voltage 120;
	base_power_12 scadaLoads.value*213.939;
};

object transformer {
	phases CS;
	from node839486839484;
	name 1806-33-015;
	to nodeS1806-33-0331806-33-015;
	configuration 1806-0052transformer_configuration32701;
};

object triplex_load {
	impedance_pf_12 0.98;
	name S1806-33-033;
	parent nodeS1806-33-0331806-33-015;
	phases CS;
	power_pf_12 0.90;
	power_fraction_12 0.3;
	impedance_fraction_12 0.7;
	nominal_voltage 120;
	base_power_12 scadaLoads.value*1052.19;
};

object transformer {
	phases CS;
	from node839483839481;
	name 1806-33-014;
	to nodeS1806-33-0431806-33-014;
	configuration 1806-0052transformer_configuration32701;
};

object triplex_load {
	impedance_pf_12 0.98;
	name S1806-33-043;
	parent nodeS1806-33-0431806-33-014;
	phases CS;
	power_pf_12 0.90;
	power_fraction_12 0.3;
	impedance_fraction_12 0.7;
	nominal_voltage 120;
	base_power_12 scadaLoads.value*2964.02;
};

object transformer {
	phases CS;
	from node839481839479;
	name 1806-33-013;
	to nodeS1806-33-0551806-33-013;
	configuration 1806-0052transformer_configuration32701;
};

object triplex_load {
	impedance_pf_12 0.98;
	name S1806-33-055;
	parent nodeS1806-33-0551806-33-013;
	phases CS;
	power_pf_12 0.90;
	power_fraction_12 0.3;
	impedance_fraction_12 0.7;
	nominal_voltage 120;
	base_power_12 scadaLoads.value*1217.51;
};

object transformer {
	phases CS;
	from node839479839477;
	name 1806-33-012;
	to nodeS1806-33-0201806-33-012;
	configuration 1806-0052transformer_configuration32701;
};

object triplex_load {
	impedance_pf_12 0.98;
	name S1806-33-020;
	parent nodeS1806-33-0201806-33-012;
	phases CS;
	power_pf_12 0.90;
	power_fraction_12 0.3;
	impedance_fraction_12 0.7;
	nominal_voltage 120;
	base_power_12 scadaLoads.value*1320.58;
};

object triplex_load {
	impedance_pf_12 0.98;
	name S1806-33-064;
	parent nodeS1806-33-0201806-33-012;
	phases CS;
	power_pf_12 0.90;
	power_fraction_12 0.3;
	impedance_fraction_12 0.7;
	nominal_voltage 120;
	base_power_12 scadaLoads.value*1596.76;
};

object transformer {
	phases CS;
	from node839475839473;
	name 1806-33-010;
	to nodeS1806-33-0541806-33-010;
	configuration 1806-0052transformer_configuration32701;
};

object triplex_load {
	impedance_pf_12 0.98;
	name S1806-33-054;
	parent nodeS1806-33-0541806-33-010;
	phases CS;
	power_pf_12 0.90;
	power_fraction_12 0.3;
	impedance_fraction_12 0.7;
	nominal_voltage 120;
	base_power_12 scadaLoads.value*1983.79;
};

object transformer {
	phases CS;
	from node839473956777;
	name 1806-33-009;
	to nodeS1806-33-0581806-33-009;
	configuration 1806-0052transformer_configuration32701;
};

object triplex_load {
	impedance_pf_12 0.98;
	name S1806-33-058;
	parent nodeS1806-33-0581806-33-009;
	phases CS;
	power_pf_12 0.90;
	power_fraction_12 0.3;
	impedance_fraction_12 0.7;
	nominal_voltage 120;
	base_power_12 scadaLoads.value*1518.96;
};

object transformer {
	phases CS;
	from node956777839471;
	name 1806-33-081;
	to nodeS1806-33-0761806-33-081;
	configuration 1806-0052transformer_configuration32701;
};

object triplex_load {
	impedance_pf_12 0.98;
	name S1806-33-076;
	parent nodeS1806-33-0761806-33-081;
	phases CS;
	power_pf_12 0.90;
	power_fraction_12 0.3;
	impedance_fraction_12 0.7;
	nominal_voltage 120;
	base_power_12 scadaLoads.value*943.275;
};

object transformer {
	phases CS;
	from node839471839469;
	name 1806-33-008;
	to nodeS1806-33-0651806-33-008;
	configuration 1806-0052transformer_configuration32701;
};

object triplex_load {
	impedance_pf_12 0.98;
	name S1806-33-065;
	parent nodeS1806-33-0651806-33-008;
	phases CS;
	power_pf_12 0.90;
	power_fraction_12 0.3;
	impedance_fraction_12 0.7;
	nominal_voltage 120;
	base_power_12 scadaLoads.value*1834.04;
};

object transformer {
	phases CS;
	from node839469839466;
	name 1806-33-007;
	to nodeS1806-33-0071806-33-007;
	configuration 1806-0052transformer_configuration32701;
};

object triplex_load {
	impedance_pf_12 0.98;
	name S1806-33-007;
	parent nodeS1806-33-0071806-33-007;
	phases CS;
	power_pf_12 0.90;
	power_fraction_12 0.3;
	impedance_fraction_12 0.7;
	nominal_voltage 120;
	base_power_12 scadaLoads.value*2761.75;
};

object triplex_load {
	impedance_pf_12 0.98;
	name S1806-33-009;
	parent nodeS1806-33-0071806-33-007;
	phases CS;
	power_pf_12 0.90;
	power_fraction_12 0.3;
	impedance_fraction_12 0.7;
	nominal_voltage 120;
	base_power_12 scadaLoads.value*466.775;
};

object transformer {
	phases CS;
	from node839466839464;
	name 1806-33-006;
	to nodeS1806-33-0101806-33-006;
	configuration 1806-0052transformer_configuration32701;
};

object triplex_load {
	impedance_pf_12 0.98;
	name S1806-33-010;
	parent nodeS1806-33-0101806-33-006;
	phases CS;
	power_pf_12 0.90;
	power_fraction_12 0.3;
	impedance_fraction_12 0.7;
	nominal_voltage 120;
	base_power_12 scadaLoads.value*4934.2;
};

object transformer {
	phases CS;
	from node839464839461;
	name 1806-33-005;
	to nodeS1806-33-0061806-33-005;
	configuration 1806-0052transformer_configuration32701;
};

object triplex_load {
	impedance_pf_12 0.98;
	name S1806-33-006;
	parent nodeS1806-33-0061806-33-005;
	phases CS;
	power_pf_12 0.90;
	power_fraction_12 0.3;
	impedance_fraction_12 0.7;
	nominal_voltage 120;
	base_power_12 scadaLoads.value*2771.48;
};

object underground_line {
	phases ACB;
	from node978174978172;
	name 978204;
	to node978186978204;
	length 66;
	configuration 841826line_configuration393201;
};

object overhead_line {
	phases ACBN;
	from node978186978204;
	name 978186;
	to node978169978186;
	length 270;
	configuration 978202line_configuration14001;
};

object overhead_line {
	phases ACBN;
	from node978169978186;
	name 978169;
	to node978180978169;
	length 230;
	configuration 978202line_configuration14001;
};

object overhead_line {
	phases ACBN;
	from node978180978169;
	name 978180;
	to node978184978180;
	length 180;
	configuration 978202line_configuration14001;
};

object overhead_line {
	phases ACBN;
	from node978184978180;
	name 978184;
	to node978198978184;
	length 188;
	configuration 978202line_configuration14001;
};

object overhead_line {
	phases ACBN;
	from node978198978184;
	name 978198;
	to node978173978198;
	length 297;
	configuration 978202line_configuration14001;
};

object overhead_line {
	phases ACBN;
	from node978173978198;
	name 978173;
	to node978185978173;
	length 225;
	configuration 978202line_configuration14001;
};

object overhead_line {
	phases ACBN;
	from node978185978173;
	name 978185;
	to node978190978185;
	length 225;
	configuration 978202line_configuration14001;
};

object overhead_line {
	phases ACBN;
	from node978190978185;
	name 978190;
	to node978196978190;
	length 225;
	configuration 978202line_configuration14001;
};

object overhead_line {
	phases ACBN;
	from node978196978190;
	name 978196;
	to node978178978196;
	length 225;
	configuration 978202line_configuration14001;
};

object overhead_line {
	phases ACBN;
	from node978178978196;
	name 978178;
	to node978171978178;
	length 280;
	configuration 978202line_configuration14001;
};

object overhead_line {
	phases ACBN;
	from node978171978178;
	name 978171;
	to node978175978171;
	length 250;
	configuration 978202line_configuration14001;
};

object overhead_line {
	phases ACBN;
	from node978175978171;
	name 978175;
	to node978181978175;
	length 225;
	configuration 978202line_configuration14001;
};

object overhead_line {
	phases ACBN;
	from node978181978175;
	name 978181;
	to node978197978181;
	length 225;
	configuration 978202line_configuration14001;
};

object overhead_line {
	phases ACBN;
	from node978197978181;
	name 978197;
	to node978176978197;
	length 225;
	configuration 978202line_configuration14001;
};

object overhead_line {
	phases ACBN;
	from node978176978197;
	name 978176;
	to node978189978176;
	length 203;
	configuration 978202line_configuration14001;
};

object overhead_line {
	phases ACBN;
	from node978189978176;
	name 978189;
	to node978202978189;
	length 203;
	configuration 978202line_configuration14001;
};

object overhead_line {
	phases ACBN;
	from node978202978189;
	name 978202;
	to node978182978202;
	length 203;
	configuration 978202line_configuration14001;
};

object line_configuration {
	name 978202line_configuration14001;
	spacing 985054line_configuration196601line_spacing196602;
	conductor_N 926524line_configuration135701overhead_line_conductor135705;
	conductor_A 978202line_configuration14001overhead_line_conductor14003;
	conductor_C 978202line_configuration14001overhead_line_conductor14003;
	conductor_B 978202line_configuration14001overhead_line_conductor14003;
};

object overhead_line_conductor {
	resistance 0.216;
	name 978202line_configuration14001overhead_line_conductor14003;
	geometric_mean_radius 0.0304;
};

object overhead_line {
	phases BN;
	from node978182978202;
	name 978182;
	to node978177978182;
	length 75;
	configuration 985054line_configuration196601;
};

object overhead_line {
	phases BN;
	from node978177978182;
	name 978177;
	to node841713978177;
	length 82;
	configuration 985054line_configuration196601;
};

object overhead_line {
	phases BN;
	from node841713978177;
	name 841713;
	to nodeR2909x1841713;
	length 10;
	configuration 985054line_configuration196601;
};

object fuse {
	phases BN;
	from nodeR2909x1841713;
	name R2909x1;
	current_limit 9999.0 A;
	to node841714R2909x1;
};

object overhead_line {
	phases BN;
	from node841714R2909x1;
	name 841714;
	to node841715841714;
	length 509;
	configuration 985054line_configuration196601;
};

object overhead_line {
	phases BN;
	from node841715841714;
	name 841715;
	to node969649841715;
	length 40;
	configuration 985054line_configuration196601;
};

object overhead_line {
	phases BN;
	from node969649841715;
	name 969649;
	to node841718969649;
	length 440;
	configuration 985054line_configuration196601;
};

object overhead_line {
	phases BN;
	from node841718969649;
	name 841718;
	to node841719841718;
	length 1043;
	configuration 985054line_configuration196601;
};

object overhead_line {
	phases BN;
	from node841719841718;
	name 841719;
	to node841720841719;
	length 290;
	configuration 985054line_configuration196601;
};

object overhead_line {
	phases BN;
	from node841720841719;
	name 841720;
	to node841722841720;
	length 233;
	configuration 985054line_configuration196601;
};

object overhead_line {
	phases BN;
	from node841722841720;
	name 841722;
	to node841723841722;
	length 143;
	configuration 985054line_configuration196601;
};

object overhead_line {
	phases BN;
	from node841723841722;
	name 841723;
	to nodeFFRN1-F011x1841723;
	length 75;
	configuration 985054line_configuration196601;
};

object fuse {
	phases B;
	from nodeFFRN1-F011x1841723;
	name FFRN1-F011x1;
	current_limit 9999.0 A;
	to node841724FFRN1-F011x1;
};

object underground_line {
	phases B;
	from node841724FFRN1-F011x1;
	name 841724;
	to node841725841724;
	length 81;
	configuration 841826line_configuration393201;
};

object underground_line {
	phases B;
	from node841725841724;
	name 841725;
	to node1806-0099841725;
	length 135;
	configuration 841826line_configuration393201;
};

object transformer {
	phases BS;
	from node1806-0099841725;
	name 1806-0099;
	to nodeS1806-33-0211806-0099;
	configuration 1806-0052transformer_configuration32701;
};

object triplex_load {
	impedance_pf_12 0.98;
	name S1806-33-021;
	parent nodeS1806-33-0211806-0099;
	phases BS;
	power_pf_12 0.90;
	power_fraction_12 0.3;
	impedance_fraction_12 0.7;
	nominal_voltage 120;
	base_power_12 scadaLoads.value*100.0;
};

object overhead_line {
	phases BN;
	from node841723841722;
	name 841739;
	to node1806-28-011841739;
	length 331;
	configuration 985054line_configuration196601;
};

object transformer {
	phases BS;
	from node1806-28-011841739;
	name 1806-28-011;
	to nodeS1806-28-0011806-28-011;
	configuration 1806-0052transformer_configuration32701;
};

object triplex_load {
	impedance_pf_12 0.98;
	name S1806-28-001;
	parent nodeS1806-28-0011806-28-011;
	phases BS;
	power_pf_12 0.90;
	power_fraction_12 0.3;
	impedance_fraction_12 0.7;
	nominal_voltage 120;
	base_power_12 scadaLoads.value*100.0;
};

object triplex_load {
	impedance_pf_12 0.98;
	name S1806-28-010;
	parent nodeS1806-28-0011806-28-011;
	phases BS;
	power_pf_12 0.90;
	power_fraction_12 0.3;
	impedance_fraction_12 0.7;
	nominal_voltage 120;
	base_power_12 scadaLoads.value*100.0;
};

object overhead_line {
	phases BN;
	from node841723841722;
	name 841740;
	to node841727841740;
	length 356;
	configuration 985054line_configuration196601;
};

object underground_line {
	phases BN;
	from node841727841740;
	name 841727;
	to nodeF18526x1841727;
	length 30;
	configuration 841826line_configuration393201;
};

object fuse {
	phases B;
	from nodeF18526x1841727;
	name F18526x1;
	current_limit 9999.0 A;
	to node939255F18526x1;
};

object underground_line {
	phases B;
	from node939255F18526x1;
	name 939255;
	to node841728939255;
	length 281;
	configuration 841826line_configuration393201;
};

object underground_line {
	phases B;
	from node841728939255;
	name 841728;
	to node1806-0098841728;
	length 254;
	configuration 841826line_configuration393201;
};

object transformer {
	phases BS;
	from node1806-0098841728;
	name 1806-0098;
	to nodeS1806-33-0341806-0098;
	configuration 1806-0052transformer_configuration32701;
};

object triplex_load {
	impedance_pf_12 0.98;
	name S1806-33-034;
	parent nodeS1806-33-0341806-0098;
	phases BS;
	power_pf_12 0.90;
	power_fraction_12 0.3;
	impedance_fraction_12 0.7;
	nominal_voltage 120;
	base_power_12 scadaLoads.value*100.0;
};

object triplex_load {
	impedance_pf_12 0.98;
	name S1806-33-036;
	parent nodeS1806-33-0341806-0098;
	phases BS;
	power_pf_12 0.90;
	power_fraction_12 0.3;
	impedance_fraction_12 0.7;
	nominal_voltage 120;
	base_power_12 scadaLoads.value*100.0;
};

object triplex_load {
	impedance_pf_12 0.98;
	name S1806-33-048;
	parent nodeS1806-33-0341806-0098;
	phases BS;
	power_pf_12 0.90;
	power_fraction_12 0.3;
	impedance_fraction_12 0.7;
	nominal_voltage 120;
	base_power_12 scadaLoads.value*100.0;
};

object overhead_line {
	phases BN;
	from node841727841740;
	name 939235;
	to node841734939235;
	length 338;
	configuration 985054line_configuration196601;
};

object underground_line {
	phases BN;
	from node841734939235;
	name 841734;
	to nodeF18527x1841734;
	length 16;
	configuration 841826line_configuration393201;
};

object fuse {
	phases B;
	from nodeF18527x1841734;
	name F18527x1;
	current_limit 9999.0 A;
	to node939275F18527x1;
};

object underground_line {
	phases B;
	from node939275F18527x1;
	name 939275;
	to node841736939275;
	length 312;
	configuration 841826line_configuration393201;
};

object underground_line {
	phases BN;
	from node841736939275;
	name 841736;
	to nodeT18549841736;
	length 126;
	configuration 841826line_configuration393201;
};

object transformer {
	phases BS;
	from nodeT18549841736;
	name T18549;
	to nodeS1806-33-024T18549;
	configuration 1806-0052transformer_configuration32701;
};

object triplex_load {
	impedance_pf_12 0.98;
	name S1806-33-024;
	parent nodeS1806-33-024T18549;
	phases BS;
	power_pf_12 0.90;
	power_fraction_12 0.3;
	impedance_fraction_12 0.7;
	nominal_voltage 120;
	base_power_12 scadaLoads.value*100.0;
};

object triplex_load {
	impedance_pf_12 0.98;
	name S1806-33-053;
	parent nodeS1806-33-024T18549;
	phases BS;
	power_pf_12 0.90;
	power_fraction_12 0.3;
	impedance_fraction_12 0.7;
	nominal_voltage 120;
	base_power_12 scadaLoads.value*100.0;
};

object transformer {
	phases BS;
	from node841736939275;
	name 1806-0097;
	to nodeS1806-33-0271806-0097;
	configuration 1806-0052transformer_configuration32701;
};

object triplex_load {
	impedance_pf_12 0.98;
	name S1806-33-027;
	parent nodeS1806-33-0271806-0097;
	phases BS;
	power_pf_12 0.90;
	power_fraction_12 0.3;
	impedance_fraction_12 0.7;
	nominal_voltage 120;
	base_power_12 scadaLoads.value*100.0;
};

object overhead_line {
	phases BN;
	from node841734939235;
	name 841742;
	to node841744841742;
	length 565;
	configuration 985054line_configuration196601;
};

object overhead_line {
	phases BN;
	from node841744841742;
	name 841744;
	to node841748841744;
	length 302;
	configuration 985054line_configuration196601;
};

object overhead_line {
	phases B;
	from node841748841744;
	name 841748;
	to node923535841748;
	length 869;
	configuration 985054line_configuration196601;
};

object underground_line {
	phases B;
	from node923535841748;
	name 923535;
	to node923536923535;
	length 20;
	configuration 841826line_configuration393201;
};

object underground_line {
	phases B;
	from node923536923535;
	name 923536;
	to node841999923536;
	length 1275;
	configuration 841826line_configuration393201;
};

object underground_line {
	phases B;
	from node841999923536;
	name 841999;
	to nodeT10512841999;
	length 510;
	configuration 841826line_configuration393201;
};

object transformer {
	phases BS;
	from nodeT10512841999;
	name T10512;
	to nodeS1806-27-011T10512;
	configuration 1806-0052transformer_configuration32701;
};

object triplex_load {
	impedance_pf_12 0.98;
	name S1806-27-011;
	parent nodeS1806-27-011T10512;
	phases BS;
	power_pf_12 0.90;
	power_fraction_12 0.3;
	impedance_fraction_12 0.7;
	nominal_voltage 120;
	base_power_12 scadaLoads.value*100.0;
};

object underground_line {
	phases B;
	from node841999923536;
	name 923537;
	to nodeT10513923537;
	length 465;
	configuration 841826line_configuration393201;
};

object transformer {
	phases BS;
	from nodeT10513923537;
	name T10513;
	to nodeS1806-27-008T10513;
	configuration 1806-0052transformer_configuration32701;
};

object triplex_load {
	impedance_pf_12 0.98;
	name S1806-27-008;
	parent nodeS1806-27-008T10513;
	phases BS;
	power_pf_12 0.90;
	power_fraction_12 0.3;
	impedance_fraction_12 0.7;
	nominal_voltage 120;
	base_power_12 scadaLoads.value*100.0;
};

object underground_line {
	phases B;
	from node841999923536;
	name 923538;
	to node841997923538;
	length 1385;
	configuration 841826line_configuration393201;
};

object underground_line {
	phases B;
	from node841997923538;
	name 841997;
	to nodeT10515841997;
	length 1271;
	configuration 841826line_configuration393201;
};

object transformer {
	phases BS;
	from nodeT10515841997;
	name T10515;
	to nodeS1806-28-013T10515;
	configuration T6854transformer_configuration65501;
};

object triplex_load {
	impedance_pf_12 0.98;
	name S1806-28-013;
	parent nodeS1806-28-013T10515;
	phases BS;
	power_pf_12 0.90;
	power_fraction_12 0.3;
	impedance_fraction_12 0.7;
	nominal_voltage 120;
	base_power_12 scadaLoads.value*100.0;
};

object underground_line {
	phases B;
	from node923536923535;
	name 923594;
	to node923593923594;
	length 134;
	configuration 841826line_configuration393201;
};

object overhead_line {
	phases BN;
	from node923593923594;
	name 923593;
	to node841751923593;
	length 304;
	configuration 985054line_configuration196601;
};

object underground_line {
	phases BN;
	from node841751923593;
	name 841751;
	to nodeFFRN1-F081x1841751;
	length 104;
	configuration 841826line_configuration393201;
};

object fuse {
	phases B;
	from nodeFFRN1-F081x1841751;
	name FFRN1-F081x1;
	current_limit 9999.0 A;
	to node841752FFRN1-F081x1;
};

object underground_line {
	phases B;
	from node841752FFRN1-F081x1;
	name 841752;
	to node1806-0198841752;
	length 604;
	configuration 841826line_configuration393201;
};

object transformer {
	phases BS;
	from node1806-0198841752;
	name 1806-0198;
	to nodeS1806-33-0611806-0198;
	configuration 1806-0052transformer_configuration32701;
};

object triplex_load {
	impedance_pf_12 0.98;
	name S1806-33-061;
	parent nodeS1806-33-0611806-0198;
	phases BS;
	power_pf_12 0.90;
	power_fraction_12 0.3;
	impedance_fraction_12 0.7;
	nominal_voltage 120;
	base_power_12 scadaLoads.value*100.0;
};

object overhead_line {
	phases BN;
	from node841751923593;
	name 841754;
	to node841755841754;
	length 71;
	configuration 985054line_configuration196601;
};

object overhead_line {
	phases BN;
	from node841755841754;
	name 841755;
	to node841757841755;
	length 208;
	configuration 985054line_configuration196601;
};

object overhead_line {
	phases BN;
	from node841757841755;
	name 841757;
	to node841759841757;
	length 334;
	configuration 985054line_configuration196601;
};

object overhead_line {
	phases BN;
	from node841759841757;
	name 841759;
	to node841760841759;
	length 352;
	configuration 985054line_configuration196601;
};

object overhead_line {
	phases BN;
	from node841760841759;
	name 841760;
	to node841762841760;
	length 210;
	configuration 985054line_configuration196601;
};

object overhead_line {
	phases BN;
	from node841762841760;
	name 841762;
	to node841763841762;
	length 31;
	configuration 985054line_configuration196601;
};

object underground_line {
	phases BN;
	from node841763841762;
	name 841763;
	to nodeFFRN1-F140x1841763;
	length 18;
	configuration 841826line_configuration393201;
};

object fuse {
	phases B;
	from nodeFFRN1-F140x1841763;
	name FFRN1-F140x1;
	current_limit 9999.0 A;
	to node841764FFRN1-F140x1;
};

object underground_line {
	phases B;
	from node841764FFRN1-F140x1;
	name 841764;
	to node1806-0062841764;
	length 400;
	configuration 841826line_configuration393201;
};

object transformer {
	phases BS;
	from node1806-0062841764;
	name 1806-0062;
	to nodeS1806-34-0051806-0062;
	configuration 1806-0052transformer_configuration32701;
};

object triplex_load {
	impedance_pf_12 0.98;
	name S1806-34-005;
	parent nodeS1806-34-0051806-0062;
	phases BS;
	power_pf_12 0.90;
	power_fraction_12 0.3;
	impedance_fraction_12 0.7;
	nominal_voltage 120;
	base_power_12 scadaLoads.value*100.0;
};

object overhead_line {
	phases BN;
	from node841763841762;
	name 841766;
	to node841767841766;
	length 352;
	configuration 985054line_configuration196601;
};

object underground_line {
	phases BN;
	from node841767841766;
	name 841767;
	to nodeFFRN1-F176x1841767;
	length 54;
	configuration 841826line_configuration393201;
};

object fuse {
	phases B;
	from nodeFFRN1-F176x1841767;
	name FFRN1-F176x1;
	current_limit 9999.0 A;
	to node841768FFRN1-F176x1;
};

object underground_line {
	phases B;
	from node841768FFRN1-F176x1;
	name 841768;
	to node1806-0088841768;
	length 577;
	configuration 841826line_configuration393201;
};

object transformer {
	phases BS;
	from node1806-0088841768;
	name 1806-0088;
	to nodeS1806-33-0491806-0088;
	configuration 1806-0052transformer_configuration32701;
};

object triplex_load {
	impedance_pf_12 0.98;
	name S1806-33-049;
	parent nodeS1806-33-0491806-0088;
	phases BS;
	power_pf_12 0.90;
	power_fraction_12 0.3;
	impedance_fraction_12 0.7;
	nominal_voltage 120;
	base_power_12 scadaLoads.value*100.0;
};

object overhead_line {
	phases BN;
	from node841767841766;
	name 841770;
	to node923342841770;
	length 342;
	configuration 985054line_configuration196601;
};

object overhead_line {
	phases BN;
	from node923342841770;
	name 923342;
	to node841771923342;
	length 136;
	configuration 985054line_configuration196601;
};

object underground_line {
	phases BN;
	from node841771923342;
	name 841771;
	to nodeFFRN1-F196x1841771;
	length 197;
	configuration 841826line_configuration393201;
};

object fuse {
	phases B;
	from nodeFFRN1-F196x1841771;
	name FFRN1-F196x1;
	current_limit 9999.0 A;
	to node841772FFRN1-F196x1;
};

object underground_line {
	phases B;
	from node841772FFRN1-F196x1;
	name 841772;
	to node1806-0190841772;
	length 210;
	configuration 841826line_configuration393201;
};

object transformer {
	phases BS;
	from node1806-0190841772;
	name 1806-0190;
	to nodeS1806-33-0601806-0190;
	configuration 1806-0052transformer_configuration32701;
};

object triplex_load {
	impedance_pf_12 0.98;
	name S1806-33-060;
	parent nodeS1806-33-0601806-0190;
	phases BS;
	power_pf_12 0.90;
	power_fraction_12 0.3;
	impedance_fraction_12 0.7;
	nominal_voltage 120;
	base_power_12 scadaLoads.value*100.0;
};

object triplex_load {
	impedance_pf_12 0.98;
	name S1806-33-062;
	parent nodeS1806-33-0601806-0190;
	phases BS;
	power_pf_12 0.90;
	power_fraction_12 0.3;
	impedance_fraction_12 0.7;
	nominal_voltage 120;
	base_power_12 scadaLoads.value*100.0;
};

object overhead_line {
	phases BN;
	from node841771923342;
	name 841775;
	to node926654841775;
	length 1192;
	configuration 985054line_configuration196601;
};

object overhead_line {
	phases BN;
	from node926654841775;
	name 926654;
	to node1806-33-057926654;
	length 1630;
	configuration 985054line_configuration196601;
};

object transformer {
	phases BS;
	from node1806-33-057926654;
	name 1806-33-057;
	to nodeS1806-33-0041806-33-057;
	configuration 1806-0052transformer_configuration32701;
};

object triplex_load {
	impedance_pf_12 0.98;
	name S1806-33-004;
	parent nodeS1806-33-0041806-33-057;
	phases BS;
	power_pf_12 0.90;
	power_fraction_12 0.3;
	impedance_fraction_12 0.7;
	nominal_voltage 120;
	base_power_12 scadaLoads.value*100.0;
};

object transformer {
	phases BS;
	from node923342841770;
	name 1806-33-066;
	to nodeS1806-33-0721806-33-066;
	configuration 1806-0052transformer_configuration32701;
};

object triplex_load {
	impedance_pf_12 0.98;
	name S1806-33-072;
	parent nodeS1806-33-0721806-33-066;
	phases BS;
	power_pf_12 0.90;
	power_fraction_12 0.3;
	impedance_fraction_12 0.7;
	nominal_voltage 120;
	base_power_12 scadaLoads.value*100.0;
};

object transformer {
	phases BS;
	from node841760841759;
	name 1806-33-052;
	to nodeS1806-33-0141806-33-052;
	configuration 1806-0052transformer_configuration32701;
};

object triplex_load {
	impedance_pf_12 0.98;
	name S1806-33-014;
	parent nodeS1806-33-0141806-33-052;
	phases BS;
	power_pf_12 0.90;
	power_fraction_12 0.3;
	impedance_fraction_12 0.7;
	nominal_voltage 120;
	base_power_12 scadaLoads.value*100.0;
};

object transformer {
	phases BS;
	from node841759841757;
	name 1806-33-051;
	to nodeS1806-34-0031806-33-051;
	configuration 1806-0052transformer_configuration32701;
};

object triplex_load {
	impedance_pf_12 0.98;
	name S1806-34-003;
	parent nodeS1806-34-0031806-33-051;
	phases BS;
	power_pf_12 0.90;
	power_fraction_12 0.3;
	impedance_fraction_12 0.7;
	nominal_voltage 120;
	base_power_12 scadaLoads.value*100.0;
};

object transformer {
	phases BS;
	from node841757841755;
	name 1806-33-050;
	to nodeS1806-33-0181806-33-050;
	configuration 1806-0052transformer_configuration32701;
};

object triplex_load {
	impedance_pf_12 0.98;
	name S1806-33-018;
	parent nodeS1806-33-0181806-33-050;
	phases BS;
	power_pf_12 0.90;
	power_fraction_12 0.3;
	impedance_fraction_12 0.7;
	nominal_voltage 120;
	base_power_12 scadaLoads.value*100.0;
};

object underground_line {
	phases BN;
	from node841755841754;
	name 841777;
	to nodeFFRN1-F217x1841777;
	length 96;
	configuration 841826line_configuration393201;
};

object fuse {
	phases B;
	from nodeFFRN1-F217x1841777;
	name FFRN1-F217x1;
	current_limit 9999.0 A;
	to node841778FFRN1-F217x1;
};

object underground_line {
	phases B;
	from node841778FFRN1-F217x1;
	name 841778;
	to node1806-0245841778;
	length 646;
	configuration 841826line_configuration393201;
};

object transformer {
	phases BS;
	from node1806-0245841778;
	name 1806-0245;
	to nodeS1806-34-0061806-0245;
	configuration 1806-0052transformer_configuration32701;
};

object triplex_load {
	impedance_pf_12 0.98;
	name S1806-34-006;
	parent nodeS1806-34-0061806-0245;
	phases BS;
	power_pf_12 0.90;
	power_fraction_12 0.3;
	impedance_fraction_12 0.7;
	nominal_voltage 120;
	base_power_12 scadaLoads.value*100.0;
};

object underground_line {
	phases B;
	from node923536923535;
	name 923596;
	to node923597923596;
	length 165;
	configuration 841826line_configuration393201;
};

object underground_line {
	phases B;
	from node923597923596;
	name 923597;
	to nodeT10500923597;
	length 20;
	configuration 841826line_configuration393201;
};

object transformer {
	phases BS;
	from nodeT10500923597;
	name T10500;
	to nodeS1806-27-003T10500;
	configuration 1806-0052transformer_configuration32701;
};

object triplex_load {
	impedance_pf_12 0.98;
	name S1806-27-003;
	parent nodeS1806-27-003T10500;
	phases BS;
	power_pf_12 0.90;
	power_fraction_12 0.3;
	impedance_fraction_12 0.7;
	nominal_voltage 120;
	base_power_12 scadaLoads.value*100.0;
};

object underground_line {
	phases B;
	from node923597923596;
	name 923599;
	to node923601923599;
	length 300;
	configuration 841826line_configuration393201;
};

object underground_line {
	phases B;
	from node923601923599;
	name 923601;
	to nodeT10502923601;
	length 200;
	configuration 841826line_configuration393201;
};

object transformer {
	phases BS;
	from nodeT10502923601;
	name T10502;
	to nodeS1806-27-001T10502;
	configuration 1806-0052transformer_configuration32701;
};

object triplex_load {
	impedance_pf_12 0.98;
	name S1806-27-001;
	parent nodeS1806-27-001T10502;
	phases BS;
	power_pf_12 0.90;
	power_fraction_12 0.3;
	impedance_fraction_12 0.7;
	nominal_voltage 120;
	base_power_12 scadaLoads.value*100.0;
};

object underground_line {
	phases B;
	from node923601923599;
	name 923604;
	to node923605923604;
	length 275;
	configuration 841826line_configuration393201;
};

object underground_line {
	phases B;
	from node923605923604;
	name 923605;
	to node921618923605;
	length 239;
	configuration 841826line_configuration393201;
};

object underground_line {
	phases B;
	from node921618923605;
	name 921618;
	to node921620921618;
	length 352;
	configuration 841826line_configuration393201;
};

object underground_line {
	phases B;
	from node921620921618;
	name 921620;
	to node923606921620;
	length 122;
	configuration 841826line_configuration393201;
};

object underground_line {
	phases BN;
	from node923606921620;
	name 923606;
	to nodeT7804923606;
	length 300;
	configuration 841826line_configuration393201;
};

object transformer {
	phases BS;
	from nodeT7804923606;
	name T7804;
	to nodeS1806-27-005T7804;
	configuration 1806-0052transformer_configuration32701;
};

object triplex_load {
	impedance_pf_12 0.98;
	name S1806-27-005;
	parent nodeS1806-27-005T7804;
	phases BS;
	power_pf_12 0.90;
	power_fraction_12 0.3;
	impedance_fraction_12 0.7;
	nominal_voltage 120;
	base_power_12 scadaLoads.value*100.0;
};

object transformer {
	phases BS;
	from node923606921620;
	name T12908;
	to nodeS1806-27-012T12908;
	configuration 1806-0052transformer_configuration32701;
};

object triplex_load {
	impedance_pf_12 0.98;
	name S1806-27-012;
	parent nodeS1806-27-012T12908;
	phases BS;
	power_pf_12 0.90;
	power_fraction_12 0.3;
	impedance_fraction_12 0.7;
	nominal_voltage 120;
	base_power_12 scadaLoads.value*100.0;
};

object underground_line {
	phases B;
	from node923605923604;
	name 923607;
	to node913658923607;
	length 680;
	configuration 841826line_configuration393201;
};

object underground_line {
	phases B;
	from node913658923607;
	name 913658;
	to nodeT4020913658;
	length 164;
	configuration 841826line_configuration393201;
};

object transformer {
	phases BS;
	from nodeT4020913658;
	name T4020;
	to nodeS1806-34-002T4020;
	configuration 1806-0052transformer_configuration32701;
};

object triplex_load {
	impedance_pf_12 0.98;
	name S1806-34-002;
	parent nodeS1806-34-002T4020;
	phases BS;
	power_pf_12 0.90;
	power_fraction_12 0.3;
	impedance_fraction_12 0.7;
	nominal_voltage 120;
	base_power_12 scadaLoads.value*100.0;
};

object underground_line {
	phases B;
	from node913658923607;
	name 914581;
	to node913607914581;
	length 346;
	configuration 841826line_configuration393201;
};

object underground_line {
	phases B;
	from node913607914581;
	name 913607;
	to node923608913607;
	length 260;
	configuration 841826line_configuration393201;
};

object underground_line {
	phases B;
	from node923608913607;
	name 923608;
	to node841793923608;
	length 1875;
	configuration 841826line_configuration393201;
};

object underground_line {
	phases B;
	from node841793923608;
	name 841793;
	to node923610841793;
	length 252;
	configuration 841826line_configuration393201;
};

object underground_line {
	phases B;
	from node923610841793;
	name 923610;
	to nodeT10505923610;
	length 20;
	configuration 841826line_configuration393201;
};

object transformer {
	phases BS;
	from nodeT10505923610;
	name T10505;
	to nodeS1806-34-001T10505;
	configuration 1806-0052transformer_configuration32701;
};

object triplex_load {
	impedance_pf_12 0.98;
	name S1806-34-001;
	parent nodeS1806-34-001T10505;
	phases BS;
	power_pf_12 0.90;
	power_fraction_12 0.3;
	impedance_fraction_12 0.7;
	nominal_voltage 120;
	base_power_12 scadaLoads.value*100.0;
};

object underground_line {
	phases B;
	from node841793923608;
	name 923609;
	to nodeT10506923609;
	length 677;
	configuration 841826line_configuration393201;
};

object transformer {
	phases BS;
	from nodeT10506923609;
	name T10506;
	to nodeS1806-27-010T10506;
	configuration 1806-0052transformer_configuration32701;
};

object triplex_load {
	impedance_pf_12 0.98;
	name S1806-27-010;
	parent nodeS1806-27-010T10506;
	phases BS;
	power_pf_12 0.90;
	power_fraction_12 0.3;
	impedance_fraction_12 0.7;
	nominal_voltage 120;
	base_power_12 scadaLoads.value*100.0;
};

object underground_line {
	phases B;
	from node841793923608;
	name 923611;
	to node923612923611;
	length 890;
	configuration 841826line_configuration393201;
};

object underground_line {
	phases B;
	from node923612923611;
	name 923612;
	to node923614923612;
	length 890;
	configuration 841826line_configuration393201;
};

object underground_line {
	phases B;
	from node923614923612;
	name 923614;
	to node981769923614;
	length 50;
	configuration 841826line_configuration393201;
};

object overhead_line {
	phases BN;
	from node981769923614;
	name 981769;
	to node981766981769;
	length 240;
	configuration 985054line_configuration196601;
};

object overhead_line {
	phases BN;
	from node981766981769;
	name 981766;
	to node981768981766;
	length 324;
	configuration 985054line_configuration196601;
};

object overhead_line {
	phases BN;
	from node981768981766;
	name 981768;
	to node981775981768;
	length 360;
	configuration 985054line_configuration196601;
};

object overhead_line {
	phases BN;
	from node981775981768;
	name 981775;
	to node981773981775;
	length 240;
	configuration 985054line_configuration196601;
};

object overhead_line {
	phases BN;
	from node981773981775;
	name 981773;
	to node981765981773;
	length 360;
	configuration 985054line_configuration196601;
};

object overhead_line {
	phases BN;
	from node981765981773;
	name 981765;
	to node981777981765;
	length 360;
	configuration 985054line_configuration196601;
};

object overhead_line {
	phases BN;
	from node981777981765;
	name 981777;
	to node981783981777;
	length 272;
	configuration 985054line_configuration196601;
};

object overhead_line {
	phases BN;
	from node981783981777;
	name 981783;
	to node981767981783;
	length 250;
	configuration 985054line_configuration196601;
};

object overhead_line {
	phases BN;
	from node981767981783;
	name 981767;
	to node981781981767;
	length 300;
	configuration 985054line_configuration196601;
};

object overhead_line {
	phases BN;
	from node981781981767;
	name 981781;
	to node981779981781;
	length 300;
	configuration 985054line_configuration196601;
};

object overhead_line {
	phases BN;
	from node981779981781;
	name 981779;
	to node981772981779;
	length 294;
	configuration 985054line_configuration196601;
};

object overhead_line {
	phases BN;
	from node981772981779;
	name 981772;
	to node981776981772;
	length 310;
	configuration 985054line_configuration196601;
};

object overhead_line {
	phases BN;
	from node981776981772;
	name 981776;
	to node981774981776;
	length 300;
	configuration 985054line_configuration196601;
};

object overhead_line {
	phases BN;
	from node981774981776;
	name 981774;
	to node981771981774;
	length 240;
	configuration 985054line_configuration196601;
};

object overhead_line {
	phases BN;
	from node981771981774;
	name 981771;
	to node981778981771;
	length 350;
	configuration 985054line_configuration196601;
};

object overhead_line {
	phases BN;
	from node981778981771;
	name 981778;
	to node981782981778;
	length 300;
	configuration 985054line_configuration196601;
};

object overhead_line {
	phases BN;
	from node981782981778;
	name 981782;
	to node981770981782;
	length 270;
	configuration 985054line_configuration196601;
};

object overhead_line {
	phases BN;
	from node981770981782;
	name 981770;
	to node6920x1-Bx1981770;
	length 20;
	configuration 985054line_configuration196601;
};

object transformer {
	phases BS;
	from node981771981774;
	name 1806-27-048;
	to nodeS1806-27-0021806-27-048;
	configuration 1806-0052transformer_configuration32701;
};

object triplex_load {
	impedance_pf_12 0.98;
	name S1806-27-002;
	parent nodeS1806-27-0021806-27-048;
	phases BS;
	power_pf_12 0.90;
	power_fraction_12 0.3;
	impedance_fraction_12 0.7;
	nominal_voltage 120;
	base_power_12 scadaLoads.value*100.0;
};

object underground_line {
	phases B;
	from node923614923612;
	name 923615;
	to node928725923615;
	length 310;
	configuration 841826line_configuration393201;
};

object underground_line {
	phases BN;
	from node928725923615;
	name 928725;
	to node928730928725;
	length 384;
	configuration 841826line_configuration393201;
};

object underground_line {
	phases B;
	from node928730928725;
	name 928730;
	to node928731928730;
	length 742;
	configuration 841826line_configuration393201;
};

object underground_line {
	phases B;
	from node928731928730;
	name 928731;
	to node928127928731;
	length 935;
	configuration 841826line_configuration393201;
};

object underground_line {
	phases B;
	from node928127928731;
	name 928127;
	to nodeT7903928127;
	length 1096;
	configuration 841826line_configuration393201;
};

object transformer {
	phases BS;
	from nodeT7903928127;
	name T7903;
	to nodeS1806-35-015T7903;
	configuration 1806-0052transformer_configuration32701;
};

object triplex_load {
	impedance_pf_12 0.98;
	name S1806-35-015;
	parent nodeS1806-35-015T7903;
	phases BS;
	power_pf_12 0.90;
	power_fraction_12 0.3;
	impedance_fraction_12 0.7;
	nominal_voltage 120;
	base_power_12 scadaLoads.value*100.0;
};

object underground_line {
	phases B;
	from node928127928731;
	name 928733;
	to nodeT7871928733;
	length 32;
	configuration 841826line_configuration393201;
};

object underground_line {
	phases B;
	from node928127928731;
	name 928735;
	to node837409928735;
	length 250;
	configuration 841826line_configuration393201;
};

object underground_line {
	phases B;
	from node837409928735;
	name 837409;
	to node924936837409;
	length 812;
	configuration 841826line_configuration393201;
};

object underground_line {
	phases B;
	from node924936837409;
	name 924936;
	to node965706924936;
	length 573;
	configuration 841826line_configuration393201;
};

object underground_line {
	phases BN;
	from node965706924936;
	name 965706;
	to node965707965706;
	length 501;
	configuration 841826line_configuration393201;
};

object underground_line {
	phases BN;
	from node965707965706;
	name 965707;
	to node837415965707;
	length 382;
	configuration 841826line_configuration393201;
};

object underground_line {
	phases B;
	from node837415965707;
	name 837415;
	to node837416837415;
	length 318;
	configuration 841826line_configuration393201;
};

object underground_line {
	phases B;
	from node837416837415;
	name 837416;
	to node837417837416;
	length 24;
	configuration 841826line_configuration393201;
};

object underground_line {
	phases B;
	from node837417837416;
	name 837417;
	to node928193837417;
	length 338;
	configuration 841826line_configuration393201;
};

object underground_line {
	phases BN;
	from node928193837417;
	name 928193;
	to nodeT12193928193;
	length 118;
	configuration 841826line_configuration393201;
};

object transformer {
	phases BS;
	from node928193837417;
	name T12192;
	to nodeS1806-35-032T12192;
	configuration 1806-0052transformer_configuration32701;
};

object triplex_load {
	impedance_pf_12 0.98;
	name S1806-35-032;
	parent nodeS1806-35-032T12192;
	phases BS;
	power_pf_12 0.90;
	power_fraction_12 0.3;
	impedance_fraction_12 0.7;
	nominal_voltage 120;
	base_power_12 scadaLoads.value*100.0;
};

object transformer {
	phases BS;
	from node837415965707;
	name 1806-0180;
	to nodeS1806-35-0311806-0180;
	configuration 1806-0052transformer_configuration32701;
};

object triplex_load {
	impedance_pf_12 0.98;
	name S1806-35-031;
	parent nodeS1806-35-0311806-0180;
	phases BS;
	power_pf_12 0.90;
	power_fraction_12 0.3;
	impedance_fraction_12 0.7;
	nominal_voltage 120;
	base_power_12 scadaLoads.value*100.0;
};

object triplex_load {
	impedance_pf_12 0.98;
	name S1806-35-033;
	parent nodeS1806-35-0311806-0180;
	phases BS;
	power_pf_12 0.90;
	power_fraction_12 0.3;
	impedance_fraction_12 0.7;
	nominal_voltage 120;
	base_power_12 scadaLoads.value*100.0;
};

object transformer {
	phases BS;
	from node965707965706;
	name T28536;
	to nodeS1806-35-052T28536;
	configuration 1806-0052transformer_configuration32701;
};

object triplex_load {
	impedance_pf_12 0.98;
	name S1806-35-052;
	parent nodeS1806-35-052T28536;
	phases BS;
	power_pf_12 0.90;
	power_fraction_12 0.3;
	impedance_fraction_12 0.7;
	nominal_voltage 120;
	base_power_12 scadaLoads.value*100.0;
};

object transformer {
	phases BS;
	from node965706924936;
	name 1806-0052;
	to nodeS1806-35-0351806-0052;
	configuration 1806-0052transformer_configuration32701;
};

object transformer_configuration {
	powerC_rating 50 kVA;
	name 1806-0052transformer_configuration32701;
	shunt_impedance 10000+10000j;
	secondary_voltage 240.0;
	connect_type SINGLE_PHASE_CENTER_TAPPED;
	impedance 0.00033+0.0022j;
	primary_voltage 7200.0;
	powerB_rating 50 kVA;
	powerA_rating 50 kVA;
};

object triplex_load {
	impedance_pf_12 0.98;
	name S1806-35-035;
	parent nodeS1806-35-0351806-0052;
	phases BS;
	power_pf_12 0.90;
	power_fraction_12 0.3;
	impedance_fraction_12 0.7;
	nominal_voltage 120;
...